<?xml version="1.0" encoding="UTF-8"?>

<routes xmlns:xsi="http://www.w3.org/2001/XMLSchema-instance" xsi:noNamespaceSchemaLocation="http://sumo.dlr.de/xsd/routes_file.xsd">
    <vType id="veh_passenger" vClass="passenger"/>
	
	<vType id="ambulance" vClass="emergency" guiShape="emergency" speedFactor="2"/>
	<vType id="police" vClass="emergency" guiShape="police" speedFactor="2"/>
	<vType id="firebrigade" vClass="emergency" guiShape="firebrigade" speedFactor="2"/>
	
	<!-- <route id="opposite_direction" edges="-564607400#2 -564607400#0 -155221402#3 -155221402#0 -840207983#1 538978472 24559263 114324801#0"/> -->
    <!-- <route id="same_direction" edges="-114324801#1 -24559263 -384158490 440915828#0 155221402#0 155221402#1 564607400#0 564607400#1 564607399 564607398#0 155221410"/> -->
    <route edges="-260028416#1" id="same_direction"/>
    <route edges="24804188" id="opposite_direction"/>


	<!-- <vehicle id="veh0" type="veh_passenger" depart="0.00" departLane="best" route="same_direction"/> -->
    <vehicle id="veh1" type="veh_passenger" depart="0.00" departLane="best" route="opposite_direction"/>
    <!-- <vehicle id="veh2" type="veh_passenger" depart="1.00" departLane="best" route="same_direction"/> -->
    <vehicle id="veh3" type="veh_passenger" depart="1.00" departLane="best" route="opposite_direction"/>
    <!-- <vehicle id="veh4" type="veh_passenger" depart="2.00" departLane="best" route="same_direction"/> -->
    <vehicle id="veh5" type="veh_passenger" depart="2.00" departLane="best" route="opposite_direction"/>    
    <!-- <vehicle id="veh6" type="veh_passenger" depart="3.00" departLane="best" route="same_direction"/> -->
    <vehicle id="veh7" type="veh_passenger" depart="3.00" departLane="best" route="opposite_direction"/>
    <!-- <vehicle id="veh8" type="veh_passenger" depart="7.00" departLane="best" route="basic"/>
    <vehicle id="veh9" type="veh_passenger" depart="9.00" departLane="best" route="basic"/>
    <vehicle id="veh10" type="veh_passenger" depart="10.00" departLane="best" route="basic"/>
    <vehicle id="veh11" type="veh_passenger" depart="11.00" departLane="best" route="basic"/>
    <vehicle id="veh12" type="veh_passenger" depart="12.00" departLane="best" route="basic"/>
    <vehicle id="veh13" type="veh_passenger" depart="13.00" departLane="best" route="basic"/>
    <vehicle id="veh14" type="veh_passenger" depart="14.00" departLane="best" route="basic"/> -->

    <vehicle id="amb0" type="ambulance" depart="15.0" departLane="best" route="same_direction"/>

</routes>