<?xml version="1.0" encoding="UTF-8"?>

<routes xmlns:xsi="http://www.w3.org/2001/XMLSchema-instance" xsi:noNamespaceSchemaLocation="http://sumo.dlr.de/xsd/routes_file.xsd">
    <vType id="veh_passenger" vClass="passenger"/>
	
	<vType id="ambulance" vClass="emergency" guiShape="emergency" speedFactor="2"/>
	<vType id="police" vClass="emergency" guiShape="police" speedFactor="2"/>
	<vType id="firebrigade" vClass="emergency" guiShape="firebrigade" speedFactor="2"/>
	
	<route edges="31875857#0 -302727395#0 24244307#2" id="ev"/>
    <route edges="-302727395#1 -302727395#0" id="regular_mwoj_1"/>
    <route edges="-24244307#2 -24244307#1 302727395#1" id="regular_mwoj_2"/>
    <route edges="31875857#0 -302727395#0 24244307#2" id="regular_mwor"/>
    <route edges="-302727395#1 -31875857#1" id="regular_nar"/>

	<vehicle id="veh0a" type="veh_passenger" depart="0.00" departLane="best" route="regular_mwoj_1"/>
    <vehicle id="veh0b" type="veh_passenger" depart="0.00" departLane="best" route="regular_mwoj_2"/>
    <vehicle id="veh0c" type="veh_passenger" depart="0.00" departLane="best" route="regular_mwor"/>
    <vehicle id="veh0d" type="veh_passenger" depart="0.00" departLane="best" route="regular_nar"/>
    <vehicle id="veh1a" type="veh_passenger" depart="1.00" departLane="best" route="regular_mwoj_1"/>
    <vehicle id="veh1b" type="veh_passenger" depart="1.00" departLane="best" route="regular_mwoj_2"/>
    <vehicle id="veh1c" type="veh_passenger" depart="1.00" departLane="best" route="regular_mwor"/>
    <vehicle id="veh1d" type="veh_passenger" depart="1.00" departLane="best" route="regular_nar"/>
    <vehicle id="veh2a" type="veh_passenger" depart="2.00" departLane="best" route="regular_mwoj_1"/>
    <vehicle id="veh2b" type="veh_passenger" depart="2.00" departLane="best" route="regular_mwoj_2"/>
    <vehicle id="veh2c" type="veh_passenger" depart="2.00" departLane="best" route="regular_mwor"/>
    <vehicle id="veh2d" type="veh_passenger" depart="2.00" departLane="best" route="regular_nar"/>
    <vehicle id="veh3a" type="veh_passenger" depart="3.00" departLane="best" route="regular_mwoj_1"/>
    <vehicle id="veh3b" type="veh_passenger" depart="3.00" departLane="best" route="regular_mwoj_2"/>
    <vehicle id="veh3c" type="veh_passenger" depart="3.00" departLane="best" route="regular_mwor"/>
    <vehicle id="veh3d" type="veh_passenger" depart="3.00" departLane="best" route="regular_nar"/>
    <vehicle id="veh4a" type="veh_passenger" depart="4.00" departLane="best" route="regular_mwoj_1"/>
    <vehicle id="veh4b" type="veh_passenger" depart="4.00" departLane="best" route="regular_mwoj_2"/>
    <vehicle id="veh4c" type="veh_passenger" depart="4.00" departLane="best" route="regular_mwor"/>
    <vehicle id="veh4d" type="veh_passenger" depart="4.00" departLane="best" route="regular_nar"/>

    <vehicle id="amb0" type="ambulance" depart="30.0" departLane="best" route="ev"/>

</routes>