<?xml version="1.0" encoding="UTF-8"?>

<!-- generated on 10/08/20 17:22:22 by Eclipse SUMO netedit Version 1.7.0
<configuration xmlns:xsi="http://www.w3.org/2001/XMLSchema-instance" xsi:noNamespaceSchemaLocation="http://sumo.dlr.de/xsd/netconvertConfiguration.xsd">

    <input>
        <sumo-net-file value="C:\Users\adams\Projekty\SumoLearning\Cracow_center\osm.net.xml"/>
    </input>

    <output>
        <output-file value="C:\Users\adams\Projekty\SumoLearning\Cracow_center\osm.net.xml"/>
        <output.street-names value="true"/>
    </output>

    <processing>
        <geometry.min-radius.fix.railways value="false"/>
        <geometry.max-grade.fix value="false"/>
        <offset.disable-normalization value="true"/>
        <lefthand value="false"/>
    </processing>

    <junctions>
        <no-turnarounds value="true"/>
        <junctions.corner-detail value="5"/>
        <junctions.limit-turn-speed value="5.5"/>
        <rectangular-lane-cut value="false"/>
    </junctions>

    <pedestrian>
        <walkingareas value="false"/>
    </pedestrian>

    <report>
        <aggregate-warnings value="5"/>
    </report>

</configuration>
-->

<net version="1.6" junctionCornerDetail="5" limitTurnSpeed="5.50" xmlns:xsi="http://www.w3.org/2001/XMLSchema-instance" xsi:noNamespaceSchemaLocation="http://sumo.dlr.de/xsd/net_file.xsd">

    <location netOffset="-420397.07,-5544664.61" convBoundary="0.00,0.00,6249.55,2682.03" origBoundary="19.801322,50.020146,19.986602,50.087366" projParameter="+proj=utm +zone=34 +ellps=WGS84 +datum=WGS84 +units=m +no_defs"/>

    <type id="highway.bridleway" priority="1" numLanes="1" speed="2.78" allow="pedestrian" oneway="1" width="2.00"/>
    <type id="highway.bus_guideway" priority="1" numLanes="1" speed="27.78" allow="bus" oneway="1"/>
    <type id="highway.cycleway" priority="1" numLanes="1" speed="8.33" allow="bicycle" oneway="0" width="1.00"/>
    <type id="highway.footway" priority="1" numLanes="1" speed="2.78" allow="pedestrian" oneway="1" width="2.00"/>
    <type id="highway.ford" priority="1" numLanes="1" speed="2.78" allow="army" oneway="0"/>
    <type id="highway.living_street" priority="2" numLanes="1" speed="2.78" disallow="tram rail_urban rail rail_electric rail_fast ship" oneway="0"/>
    <type id="highway.motorway" priority="14" numLanes="2" speed="39.44" allow="private emergency authority army vip passenger hov taxi bus coach delivery truck trailer motorcycle evehicle custom1 custom2" oneway="1"/>
    <type id="highway.motorway_link" priority="9" numLanes="1" speed="22.22" allow="private emergency authority army vip passenger hov taxi bus coach delivery truck trailer motorcycle evehicle custom1 custom2" oneway="1"/>
    <type id="highway.path" priority="1" numLanes="1" speed="2.78" allow="pedestrian bicycle" oneway="1" width="2.00"/>
    <type id="highway.pedestrian" priority="1" numLanes="1" speed="2.78" allow="pedestrian" oneway="1" width="2.00"/>
    <type id="highway.primary" priority="12" numLanes="2" speed="27.78" disallow="tram rail_urban rail rail_electric rail_fast ship" oneway="0"/>
    <type id="highway.primary_link" priority="7" numLanes="1" speed="22.22" disallow="tram rail_urban rail rail_electric rail_fast ship" oneway="0"/>
    <type id="highway.raceway" priority="15" numLanes="2" speed="83.33" allow="vip" oneway="0"/>
    <type id="highway.residential" priority="3" numLanes="1" speed="13.89" disallow="tram rail_urban rail rail_electric rail_fast ship" oneway="0"/>
    <type id="highway.secondary" priority="11" numLanes="1" speed="27.78" disallow="tram rail_urban rail rail_electric rail_fast ship" oneway="0"/>
    <type id="highway.secondary_link" priority="6" numLanes="1" speed="22.22" disallow="tram rail_urban rail rail_electric rail_fast ship" oneway="0"/>
    <type id="highway.service" priority="1" numLanes="1" speed="5.56" allow="pedestrian delivery bicycle" oneway="0"/>
    <type id="highway.stairs" priority="1" numLanes="1" speed="1.39" allow="pedestrian" oneway="1" width="2.00"/>
    <type id="highway.step" priority="1" numLanes="1" speed="1.39" allow="pedestrian" oneway="1" width="2.00"/>
    <type id="highway.steps" priority="1" numLanes="1" speed="1.39" allow="pedestrian" oneway="1" width="2.00"/>
    <type id="highway.tertiary" priority="10" numLanes="1" speed="22.22" disallow="tram rail_urban rail rail_electric rail_fast ship" oneway="0"/>
    <type id="highway.tertiary_link" priority="5" numLanes="1" speed="22.22" disallow="tram rail_urban rail rail_electric rail_fast ship" oneway="0"/>
    <type id="highway.track" priority="1" numLanes="1" speed="5.56" allow="pedestrian motorcycle moped bicycle" oneway="0"/>
    <type id="highway.trunk" priority="13" numLanes="2" speed="27.78" disallow="pedestrian bicycle tram rail_urban rail rail_electric rail_fast ship" oneway="0"/>
    <type id="highway.trunk_link" priority="8" numLanes="1" speed="22.22" disallow="pedestrian bicycle tram rail_urban rail rail_electric rail_fast ship" oneway="0"/>
    <type id="highway.unclassified" priority="4" numLanes="1" speed="13.89" disallow="tram rail_urban rail rail_electric rail_fast ship" oneway="0"/>
    <type id="highway.unsurfaced" priority="1" numLanes="1" speed="8.33" disallow="tram rail_urban rail rail_electric rail_fast ship" oneway="0"/>
    <type id="railway.highspeed" priority="21" numLanes="1" speed="69.44" allow="rail_fast" oneway="1"/>
    <type id="railway.light_rail" priority="19" numLanes="1" speed="27.78" allow="rail_urban" oneway="1"/>
    <type id="railway.preserved" priority="16" numLanes="1" speed="27.78" allow="rail" oneway="1"/>
    <type id="railway.rail" priority="20" numLanes="1" speed="44.44" allow="rail" oneway="1"/>
    <type id="railway.subway" priority="18" numLanes="1" speed="27.78" allow="rail_urban" oneway="1"/>
    <type id="railway.tram" priority="17" numLanes="1" speed="13.89" allow="tram" oneway="1"/>

    <edge id=":1024088422_0" function="internal">
        <lane id=":1024088422_0_0" index="0" disallow="tram rail_urban rail rail_electric rail_fast ship" speed="13.89" length="8.21" shape="5072.22,800.57 5072.14,798.17 5071.70,796.54 5071.25,794.91 5071.14,792.51"/>
        <lane id=":1024088422_0_1" index="1" disallow="tram rail_urban rail rail_electric rail_fast ship" speed="13.89" length="8.21" shape="5075.41,800.80 5075.34,798.39 5074.90,796.75 5074.45,795.11 5074.34,792.69"/>
    </edge>
    <edge id=":1024088432_0" function="internal">
        <lane id=":1024088432_0_0" index="0" disallow="tram rail_urban rail rail_electric rail_fast ship" speed="16.66" length="29.43" shape="5076.51,966.12 5072.54,958.48 5068.92,953.77 5064.73,949.41 5059.04,942.81"/>
        <lane id=":1024088432_0_1" index="1" disallow="tram rail_urban rail rail_electric rail_fast ship" speed="16.66" length="29.43" shape="5079.15,964.19 5075.16,956.52 5071.51,951.82 5067.28,947.46 5061.56,940.84"/>
        <lane id=":1024088432_0_2" index="2" disallow="tram rail_urban rail rail_electric rail_fast ship" speed="16.66" length="29.43" shape="5081.77,962.28 5077.24,954.85 5073.62,950.10 5069.65,945.59 5064.07,938.86"/>
        <lane id=":1024088432_0_3" index="3" disallow="tram rail_urban rail rail_electric rail_fast ship" speed="16.66" length="29.43" shape="5084.37,960.38 5079.83,952.92 5076.19,948.16 5072.19,943.63 5066.59,936.88"/>
    </edge>
    <edge id=":1024088432_4" function="internal">
        <lane id=":1024088432_4_0" index="0" disallow="tram rail_urban rail rail_electric rail_fast ship" speed="13.89" length="22.39" shape="5083.62,946.95 5075.95,946.80 5069.72,945.74 5064.92,943.75 5061.56,940.84"/>
        <lane id=":1024088432_4_1" index="1" disallow="tram rail_urban rail rail_electric rail_fast ship" speed="13.11" length="22.39" shape="5085.76,943.65 5078.24,944.06 5072.12,943.40 5067.40,941.67 5064.07,938.86"/>
        <lane id=":1024088432_4_2" index="2" disallow="tram rail_urban rail rail_electric rail_fast ship" speed="12.92" length="22.39" shape="5088.03,940.16 5080.21,940.71 5074.02,940.34 5069.48,939.07 5066.59,936.88"/>
        <lane id=":1024088432_4_3" index="3" disallow="tram rail_urban rail rail_electric rail_fast ship" speed="12.37" length="22.39" shape="5088.03,940.16 5081.76,940.42 5076.52,939.63 5072.30,937.79 5069.10,934.90"/>
    </edge>
    <edge id=":1058526420_0" function="internal">
        <lane id=":1058526420_0_0" index="0" disallow="tram rail_urban rail rail_electric rail_fast ship" speed="3.65" length="4.67" shape="5370.00,1658.69 5370.89,1657.56 5371.72,1657.23 5372.49,1657.69 5373.18,1658.95"/>
    </edge>
    <edge id=":1081143236_0" function="internal">
        <lane id=":1081143236_0_0" index="0" disallow="tram rail_urban rail rail_electric rail_fast ship" speed="13.89" length="14.63" shape="6073.51,978.12 6067.23,991.34"/>
    </edge>
    <edge id=":1081143236_1" function="internal">
        <lane id=":1081143236_1_0" index="0" disallow="tram rail_urban rail rail_electric rail_fast ship" speed="7.93" length="6.21" shape="6073.51,978.12 6071.41,981.47 6069.55,982.74"/>
    </edge>
    <edge id=":1081143236_2" function="internal">
        <lane id=":1081143236_2_0" index="0" disallow="tram rail_urban rail rail_electric rail_fast ship" speed="3.65" length="2.34" shape="6073.51,978.12 6072.29,978.89 6071.40,978.93"/>
    </edge>
    <edge id=":1081143236_9" function="internal">
        <lane id=":1081143236_9_0" index="0" disallow="tram rail_urban rail rail_electric rail_fast ship" speed="7.93" length="8.13" shape="6069.55,982.74 6068.75,983.29 6065.55,983.58 6061.79,982.36"/>
    </edge>
    <edge id=":1081143236_10" function="internal">
        <lane id=":1081143236_10_0" index="0" disallow="tram rail_urban rail rail_electric rail_fast ship" speed="3.65" length="2.34" shape="6071.40,978.93 6070.83,978.24 6070.59,976.82"/>
    </edge>
    <edge id=":1081143236_3" function="internal">
        <lane id=":1081143236_3_0" index="0" disallow="tram rail_urban rail rail_electric rail_fast ship" speed="6.42" length="9.04" shape="6063.21,979.49 6065.57,980.26 6067.59,980.07 6069.26,978.93 6070.59,976.82"/>
    </edge>
    <edge id=":1081143236_4" function="internal">
        <lane id=":1081143236_4_0" index="0" disallow="tram rail_urban rail rail_electric rail_fast ship" speed="8.00" length="14.31" shape="6063.21,979.49 6066.47,981.71 6068.22,984.43 6068.48,987.64 6067.23,991.34"/>
    </edge>
    <edge id=":1081143236_5" function="internal">
        <lane id=":1081143236_5_0" index="0" disallow="tram rail_urban rail rail_electric rail_fast ship" speed="3.65" length="4.67" shape="6063.21,979.49 6063.93,980.74 6063.93,981.63 6063.22,982.17 6061.79,982.36"/>
    </edge>
    <edge id=":1081143236_6" function="internal">
        <lane id=":1081143236_6_0" index="0" disallow="tram rail_urban rail rail_electric rail_fast ship" speed="6.51" length="9.10" shape="6064.38,989.89 6065.16,987.54 6065.00,985.50 6063.87,983.78 6061.79,982.36"/>
    </edge>
    <edge id=":1081143236_7" function="internal">
        <lane id=":1081143236_7_0" index="0" disallow="tram rail_urban rail rail_electric rail_fast ship" speed="13.89" length="14.48" shape="6064.38,989.89 6070.59,976.82"/>
    </edge>
    <edge id=":1081143236_8" function="internal">
        <lane id=":1081143236_8_0" index="0" disallow="tram rail_urban rail rail_electric rail_fast ship" speed="3.65" length="2.34" shape="6064.38,989.89 6065.63,989.18 6066.53,989.19"/>
    </edge>
    <edge id=":1081143236_11" function="internal">
        <lane id=":1081143236_11_0" index="0" disallow="tram rail_urban rail rail_electric rail_fast ship" speed="3.65" length="2.34" shape="6066.53,989.19 6067.06,989.91 6067.23,991.34"/>
    </edge>
    <edge id=":1199353835_0" function="internal">
        <lane id=":1199353835_0_0" index="0" disallow="tram rail_urban rail rail_electric rail_fast ship" speed="3.93" length="2.15" shape="5234.12,525.61 5233.63,525.32 5233.14,525.22 5232.64,525.31 5232.15,525.60"/>
    </edge>
    <edge id=":1199353835_1" function="internal">
        <lane id=":1199353835_1_0" index="0" disallow="tram rail_urban rail rail_electric rail_fast ship" speed="4.17" length="6.45" shape="5230.19,523.07 5231.67,522.21 5233.16,521.93 5234.63,522.22 5236.11,523.10"/>
    </edge>
    <edge id=":1199353868_0" function="internal">
        <lane id=":1199353868_0_0" index="0" disallow="tram rail_urban rail rail_electric rail_fast ship" speed="2.78" length="9.06" shape="5198.83,618.79 5196.37,618.40 5194.37,618.88 5192.84,620.24 5191.77,622.47"/>
    </edge>
    <edge id=":1199353868_1" function="internal">
        <lane id=":1199353868_1_0" index="0" disallow="tram rail_urban rail rail_electric rail_fast ship" speed="2.78" length="14.22" shape="5198.83,618.79 5195.30,617.13 5193.16,614.74 5192.41,611.62 5193.04,607.77"/>
    </edge>
    <edge id=":1199353868_2" function="internal">
        <lane id=":1199353868_2_0" index="0" disallow="tram rail_urban rail rail_electric rail_fast ship" speed="2.78" length="4.67" shape="5198.83,618.79 5197.92,617.68 5197.77,616.79 5198.39,616.15 5199.77,615.74"/>
    </edge>
    <edge id=":1199353868_3" function="internal">
        <lane id=":1199353868_3_0" index="0" disallow="tram rail_urban rail rail_electric rail_fast ship" speed="2.78" length="9.03" shape="5196.09,608.73 5195.69,611.18 5196.17,613.16 5197.53,614.68 5199.77,615.74"/>
    </edge>
    <edge id=":1199353868_4" function="internal">
        <lane id=":1199353868_4_0" index="0" disallow="tram rail_urban rail rail_electric rail_fast ship" speed="2.78" length="14.40" shape="5196.09,608.73 5191.77,622.47"/>
    </edge>
    <edge id=":1199353868_5" function="internal">
        <lane id=":1199353868_5_0" index="0" disallow="tram rail_urban rail rail_electric rail_fast ship" speed="2.78" length="4.67" shape="5196.09,608.73 5194.97,609.64 5194.09,609.78 5193.44,609.16 5193.04,607.77"/>
    </edge>
    <edge id=":1199353868_6" function="internal">
        <lane id=":1199353868_6_0" index="0" disallow="tram rail_urban rail rail_electric rail_fast ship" speed="2.78" length="14.40" shape="5188.72,621.51 5193.04,607.77"/>
    </edge>
    <edge id=":1199353868_7" function="internal">
        <lane id=":1199353868_7_0" index="0" disallow="tram rail_urban rail rail_electric rail_fast ship" speed="2.78" length="14.20" shape="5188.72,621.51 5190.40,618.01 5192.80,615.88 5195.92,615.12 5199.77,615.74"/>
    </edge>
    <edge id=":1199353868_8" function="internal">
        <lane id=":1199353868_8_0" index="0" disallow="tram rail_urban rail rail_electric rail_fast ship" speed="2.78" length="4.67" shape="5188.72,621.51 5189.84,620.60 5190.72,620.46 5191.37,621.08 5191.77,622.47"/>
    </edge>
    <edge id=":1199353879_0" function="internal">
        <lane id=":1199353879_0_0" index="0" disallow="tram rail_urban rail rail_electric rail_fast ship" speed="8.33" length="15.01" shape="5175.54,822.66 5161.62,828.27"/>
    </edge>
    <edge id=":1199353879_1" function="internal">
        <lane id=":1199353879_1_0" index="0" disallow="tram rail_urban rail rail_electric rail_fast ship" speed="6.95" length="6.40" shape="5175.54,822.66 5171.03,823.83 5169.33,823.44"/>
    </edge>
    <edge id=":1199353879_2" function="internal">
        <lane id=":1199353879_2_0" index="0" disallow="tram rail_urban rail rail_electric rail_fast ship" speed="3.65" length="2.34" shape="5175.54,822.66 5174.12,822.38 5173.44,821.80"/>
    </edge>
    <edge id=":1199353879_9" function="internal">
        <lane id=":1199353879_9_0" index="0" disallow="tram rail_urban rail rail_electric rail_fast ship" speed="6.95" length="9.55" shape="5169.33,823.44 5167.80,823.08 5165.85,820.40 5165.18,815.79"/>
    </edge>
    <edge id=":1199353879_10" function="internal">
        <lane id=":1199353879_10_0" index="0" disallow="tram rail_urban rail rail_electric rail_fast ship" speed="3.65" length="2.34" shape="5173.44,821.80 5173.51,820.90 5174.31,819.70"/>
    </edge>
    <edge id=":1199353879_3" function="internal">
        <lane id=":1199353879_3_0" index="0" disallow="tram rail_urban rail rail_electric rail_fast ship" speed="5.83" length="9.13" shape="5168.38,815.77 5168.76,818.41 5169.88,819.94 5171.73,820.38 5174.31,819.70"/>
    </edge>
    <edge id=":1199353879_4" function="internal">
        <lane id=":1199353879_4_0" index="0" disallow="tram rail_urban rail rail_electric rail_fast ship" speed="6.95" length="15.17" shape="5168.38,815.77 5167.98,820.25 5166.72,823.83 5164.60,826.50 5161.62,828.27"/>
    </edge>
    <edge id=":1199353879_5" function="internal">
        <lane id=":1199353879_5_0" index="0" disallow="tram rail_urban rail rail_electric rail_fast ship" speed="3.65" length="4.67" shape="5168.38,815.77 5167.58,816.97 5166.79,817.38 5165.98,816.98 5165.18,815.79"/>
    </edge>
    <edge id=":1199353879_6" function="internal">
        <lane id=":1199353879_6_0" index="0" disallow="tram rail_urban rail rail_electric rail_fast ship" speed="6.95" length="11.29" shape="5160.46,825.29 5162.54,824.00 5164.02,821.99 5164.90,819.25 5165.18,815.79"/>
    </edge>
    <edge id=":1199353879_7" function="internal">
        <lane id=":1199353879_7_0" index="0" disallow="tram rail_urban rail rail_electric rail_fast ship" speed="8.33" length="14.93" shape="5160.46,825.29 5174.31,819.70"/>
    </edge>
    <edge id=":1199353879_8" function="internal">
        <lane id=":1199353879_8_0" index="0" disallow="tram rail_urban rail rail_electric rail_fast ship" speed="3.65" length="2.34" shape="5160.46,825.29 5161.87,825.60 5162.53,826.20"/>
    </edge>
    <edge id=":1199353879_11" function="internal">
        <lane id=":1199353879_11_0" index="0" disallow="tram rail_urban rail rail_electric rail_fast ship" speed="3.65" length="2.34" shape="5162.53,826.20 5162.45,827.09 5161.62,828.27"/>
    </edge>
    <edge id=":1200446215_0" function="internal">
        <lane id=":1200446215_0_0" index="0" disallow="tram rail_urban rail rail_electric rail_fast ship" speed="3.65" length="4.67" shape="4088.11,849.77 4088.18,848.33 4088.66,847.58 4089.55,847.51 4090.85,848.13"/>
    </edge>
    <edge id=":1200446245_0" function="internal">
        <lane id=":1200446245_0_0" index="0" disallow="tram rail_urban rail rail_electric rail_fast ship" speed="7.59" length="5.00" shape="4142.91,922.10 4139.48,924.86 4138.90,924.99"/>
    </edge>
    <edge id=":1200446245_1" function="internal">
        <lane id=":1200446245_1_0" index="0" disallow="tram rail_urban rail rail_electric rail_fast ship" speed="3.65" length="2.10" shape="4142.91,922.10 4141.51,922.43 4140.87,922.24"/>
    </edge>
    <edge id=":1200446245_6" function="internal">
        <lane id=":1200446245_6_0" index="0" disallow="tram rail_urban rail rail_electric rail_fast ship" speed="7.59" length="10.39" shape="4138.90,924.99 4136.27,925.56 4133.27,924.20 4130.50,920.78"/>
    </edge>
    <edge id=":1200446245_7" function="internal">
        <lane id=":1200446245_7_0" index="0" disallow="tram rail_urban rail rail_electric rail_fast ship" speed="3.65" length="2.57" shape="4140.87,922.24 4140.65,922.17 4140.34,921.34 4140.57,919.91"/>
    </edge>
    <edge id=":1200446245_2" function="internal">
        <lane id=":1200446245_2_0" index="0" disallow="tram rail_urban rail rail_electric rail_fast ship" speed="5.98" length="9.08" shape="4133.25,919.13 4134.88,921.15 4136.65,921.96 4138.55,921.54 4140.57,919.91"/>
    </edge>
    <edge id=":1200446245_3" function="internal">
        <lane id=":1200446245_3_0" index="0" disallow="tram rail_urban rail rail_electric rail_fast ship" speed="3.65" length="4.67" shape="4133.25,919.13 4133.18,920.57 4132.70,921.33 4131.80,921.39 4130.50,920.78"/>
    </edge>
    <edge id=":1200446245_4" function="internal">
        <lane id=":1200446245_4_0" index="0" disallow="tram rail_urban rail rail_electric rail_fast ship" speed="8.59" length="12.31" shape="4131.72,932.27 4132.88,930.08 4133.06,927.43 4132.27,924.33 4130.50,920.78"/>
    </edge>
    <edge id=":1200446245_5" function="internal">
        <lane id=":1200446245_5_0" index="0" disallow="tram rail_urban rail rail_electric rail_fast ship" speed="13.89" length="15.20" shape="4131.72,932.27 4140.57,919.91"/>
    </edge>
    <edge id=":1200446283_0" function="internal">
        <lane id=":1200446283_0_0" index="0" disallow="tram rail_urban rail rail_electric rail_fast ship" speed="3.65" length="4.67" shape="3910.52,340.05 3910.68,338.61 3911.20,337.89 3912.10,337.88 3913.36,338.57"/>
    </edge>
    <edge id=":1245992918_0" function="internal">
        <lane id=":1245992918_0_0" index="0" disallow="tram rail_urban rail rail_electric rail_fast ship" speed="11.11" length="9.17" shape="5197.43,512.33 5199.94,512.03 5201.65,511.67 5203.27,511.04 5205.53,509.92"/>
        <lane id=":1245992918_0_1" index="1" disallow="tram rail_urban rail rail_electric rail_fast ship" speed="11.11" length="9.17" shape="5197.43,512.33 5200.33,512.49 5202.40,513.17 5204.37,513.54 5206.99,512.76"/>
    </edge>
    <edge id=":1245993122_0" function="internal">
        <lane id=":1245993122_0_0" index="0" disallow="tram rail_urban rail rail_electric rail_fast ship" speed="13.89" length="12.34" shape="5239.66,469.32 5238.77,466.02 5238.02,463.75 5236.82,461.74 5234.56,459.24"/>
        <lane id=":1245993122_0_1" index="1" disallow="tram rail_urban rail rail_electric rail_fast ship" speed="13.89" length="12.34" shape="5242.73,468.45 5241.71,464.68 5240.82,462.10 5239.42,459.83 5236.82,456.98"/>
    </edge>
    <edge id=":1245993122_2" function="internal">
        <lane id=":1245993122_2_0" index="0" disallow="tram rail_urban rail rail_electric rail_fast ship" speed="13.89" length="11.43" shape="5244.04,465.81 5241.88,463.61 5240.52,461.68 5239.12,459.60 5236.82,456.98"/>
    </edge>
    <edge id=":1245993336_0" function="internal">
        <lane id=":1245993336_0_0" index="0" disallow="tram rail_urban rail rail_electric rail_fast ship" speed="12.50" length="0.32" shape="5205.01,425.23 5205.14,425.29 5205.23,425.33 5205.32,425.38 5205.44,425.45"/>
        <lane id=":1245993336_0_1" index="1" disallow="tram rail_urban rail rail_electric rail_fast ship" speed="12.50" length="0.32" shape="5203.71,428.16 5203.76,428.18 5203.79,428.19 5203.82,428.21 5203.86,428.23"/>
    </edge>
    <edge id=":1314876849_0" function="internal">
        <lane id=":1314876849_0_0" index="0" disallow="tram rail_urban rail rail_electric rail_fast ship" speed="13.89" length="3.92" shape="4477.90,1018.92 4477.67,1017.79 4477.35,1017.06 4476.98,1016.34 4476.64,1015.23"/>
    </edge>
    <edge id=":1314876849_1" function="internal">
        <lane id=":1314876849_1_0" index="0" disallow="tram rail_urban rail rail_electric rail_fast ship" speed="3.65" length="2.34" shape="4481.08,1018.58 4481.75,1017.31 4482.50,1016.82"/>
    </edge>
    <edge id=":1314876849_5" function="internal">
        <lane id=":1314876849_5_0" index="0" disallow="tram rail_urban rail rail_electric rail_fast ship" speed="3.65" length="2.34" shape="4482.50,1016.82 4483.34,1017.14 4484.26,1018.25"/>
    </edge>
    <edge id=":1314876849_2" function="internal">
        <lane id=":1314876849_2_0" index="0" disallow="tram rail_urban rail rail_electric rail_fast ship" speed="5.71" length="1.62" shape="4488.62,1018.96 4487.44,1017.91"/>
        <lane id=":1314876849_2_1" index="1" disallow="tram rail_urban rail rail_electric rail_fast ship" speed="5.84" length="1.62" shape="4485.76,1017.53 4484.26,1018.25"/>
    </edge>
    <edge id=":1314876849_4" function="internal">
        <lane id=":1314876849_4_0" index="0" disallow="tram rail_urban rail rail_electric rail_fast ship" speed="5.71" length="11.28" shape="4482.90,1016.10 4480.92,1019.20 4479.22,1020.10 4477.79,1018.77 4476.64,1015.23"/>
    </edge>
    <edge id=":1314876874_0" function="internal">
        <lane id=":1314876874_0_0" index="0" disallow="tram rail_urban rail rail_electric rail_fast ship" speed="6.61" length="9.07" shape="4694.60,1014.08 4693.76,1011.74 4692.38,1010.19 4690.46,1009.45 4688.02,1009.51"/>
    </edge>
    <edge id=":1314876874_1" function="internal">
        <lane id=":1314876874_1_0" index="0" disallow="tram rail_urban rail rail_electric rail_fast ship" speed="3.65" length="4.67" shape="4694.60,1014.08 4695.14,1012.75 4695.84,1012.19 4696.71,1012.42 4697.74,1013.43"/>
    </edge>
    <edge id=":1314876874_2" function="internal">
        <lane id=":1314876874_2_0" index="0" disallow="tram rail_urban rail rail_electric rail_fast ship" speed="6.51" length="8.99" shape="4702.03,1006.80 4699.72,1007.66 4698.24,1009.05 4697.58,1010.97 4697.74,1013.43"/>
    </edge>
    <edge id=":1314876874_3" function="internal">
        <lane id=":1314876874_3_0" index="0" disallow="tram rail_urban rail rail_electric rail_fast ship" speed="13.89" length="14.28" shape="4702.03,1006.80 4688.02,1009.51"/>
    </edge>
    <edge id=":1317839351_0" function="internal">
        <lane id=":1317839351_0_0" index="0" disallow="tram rail_urban rail rail_electric rail_fast ship" speed="8.33" length="9.39" shape="1997.63,2298.14 1996.31,2288.84"/>
    </edge>
    <edge id=":1317839351_1" function="internal">
        <lane id=":1317839351_1_0" index="0" disallow="tram rail_urban rail rail_electric rail_fast ship" speed="6.07" length="7.78" shape="1997.63,2298.14 1997.44,2295.38 1997.75,2293.35 1998.56,2292.05 1999.87,2291.47"/>
    </edge>
    <edge id=":1317839351_2" function="internal">
        <lane id=":1317839351_2_0" index="0" disallow="tram rail_urban rail rail_electric rail_fast ship" speed="6.11" length="7.76" shape="2000.29,2294.65 1998.88,2294.44 1997.75,2293.40 1996.89,2291.53 1996.31,2288.84"/>
    </edge>
    <edge id=":1317839351_3" function="internal">
        <lane id=":1317839351_3_0" index="0" disallow="tram rail_urban rail rail_electric rail_fast ship" speed="3.65" length="4.67" shape="2000.29,2294.65 1998.99,2294.01 1998.49,2293.27 1998.78,2292.42 1999.87,2291.47"/>
    </edge>
    <edge id=":1325703552_0" function="internal">
        <lane id=":1325703552_0_0" index="0" disallow="tram rail_urban rail rail_electric rail_fast ship" speed="13.89" length="7.98" shape="2578.38,1534.10 2579.01,1536.25 2579.83,1537.60 2580.70,1538.94 2581.48,1541.05"/>
        <lane id=":1325703552_0_1" index="1" disallow="tram rail_urban rail rail_electric rail_fast ship" speed="13.89" length="7.98" shape="2575.23,1534.65 2575.87,1536.86 2576.70,1538.26 2577.58,1539.64 2578.38,1541.83"/>
        <lane id=":1325703552_0_2" index="2" disallow="tram rail_urban rail rail_electric rail_fast ship" speed="13.89" length="7.98" shape="2572.07,1535.20 2572.73,1537.48 2573.57,1538.92 2574.46,1540.35 2575.27,1542.60"/>
        <lane id=":1325703552_0_3" index="3" disallow="tram rail_urban rail rail_electric rail_fast ship" speed="13.89" length="7.98" shape="2572.07,1535.20 2572.25,1537.62 2572.01,1539.31 2571.84,1540.99 2572.17,1543.38"/>
    </edge>
    <edge id=":1325756433_0" function="internal">
        <lane id=":1325756433_0_0" index="0" disallow="tram rail_urban rail rail_electric rail_fast ship" speed="13.89" length="8.19" shape="1074.68,2345.32 1076.93,2344.55 1078.35,2343.66 1079.77,2342.75 1082.01,2341.93"/>
        <lane id=":1325756433_0_1" index="1" disallow="tram rail_urban rail rail_electric rail_fast ship" speed="13.89" length="8.19" shape="1075.39,2348.44 1077.66,2347.67 1079.09,2346.77 1080.52,2345.86 1082.79,2345.03"/>
        <lane id=":1325756433_0_2" index="2" disallow="tram rail_urban rail rail_electric rail_fast ship" speed="13.89" length="8.19" shape="1075.39,2348.44 1077.79,2348.15 1079.48,2348.32 1081.17,2348.48 1083.57,2348.13"/>
    </edge>
    <edge id=":1347653771_0" function="internal">
        <lane id=":1347653771_0_0" index="0" disallow="tram rail_urban rail rail_electric rail_fast ship" speed="13.89" length="14.49" shape="2247.08,2014.06 2233.72,2019.69"/>
    </edge>
    <edge id=":1347653771_1" function="internal">
        <lane id=":1347653771_1_0" index="0" disallow="tram rail_urban rail rail_electric rail_fast ship" speed="8.62" length="5.30" shape="2247.08,2014.06 2243.24,2014.89 2241.92,2014.50"/>
    </edge>
    <edge id=":1347653771_2" function="internal">
        <lane id=":1347653771_2_0" index="0" disallow="tram rail_urban rail rail_electric rail_fast ship" speed="3.65" length="2.34" shape="2247.08,2014.06 2245.66,2013.80 2244.98,2013.22"/>
    </edge>
    <edge id=":1347653771_11" function="internal">
        <lane id=":1347653771_11_0" index="0" disallow="tram rail_urban rail rail_electric rail_fast ship" speed="8.62" length="11.52" shape="2241.92,2014.50 2239.85,2013.89 2236.90,2011.06 2234.40,2006.41"/>
    </edge>
    <edge id=":1347653771_12" function="internal">
        <lane id=":1347653771_12_0" index="0" disallow="tram rail_urban rail rail_electric rail_fast ship" speed="3.65" length="2.34" shape="2244.98,2013.22 2245.03,2012.33 2245.82,2011.12"/>
    </edge>
    <edge id=":1347653771_3" function="internal">
        <lane id=":1347653771_3_0" index="0" allow="bus bicycle" speed="6.44" length="8.94" shape="2237.35,2005.17 2238.60,2007.30 2240.22,2008.52 2242.20,2008.81 2244.56,2008.18"/>
    </edge>
    <edge id=":1347653771_4" function="internal">
        <lane id=":1347653771_4_0" index="0" disallow="tram rail_urban rail rail_electric rail_fast ship" speed="7.27" length="11.67" shape="2237.35,2005.17 2239.13,2008.60 2241.14,2010.73 2243.37,2011.57 2245.82,2011.12"/>
    </edge>
    <edge id=":1347653771_5" function="internal">