<?xml version="1.0" encoding="UTF-8"?>

<!-- generated on 10/06/20 11:58:47 by Eclipse SUMO duarouter Version 1.7.0
<configuration xmlns:xsi="http://www.w3.org/2001/XMLSchema-instance" xsi:noNamespaceSchemaLocation="http://sumo.dlr.de/xsd/duarouterConfiguration.xsd">

    <input>
        <net-file value="C:\Users\adams\2020-10-06-11-57-40\osm.net.xml"/>
        <route-files value="C:\Users\adams\2020-10-06-11-57-40\osm.passenger.trips.xml"/>
    </input>

    <output>
        <output-file value="C:\Users\adams\2020-10-06-11-57-40\osm.passenger.trips.xml.tmp"/>
        <write-trips value="true"/>
    </output>

    <time>
        <begin value="0"/>
        <end value="3600"/>
    </time>

    <report>
        <no-warnings value="true"/>
        <ignore-errors value="true"/>
        <no-step-log value="true"/>
    </report>

</configuration>
-->

<routes xmlns:xsi="http://www.w3.org/2001/XMLSchema-instance" xsi:noNamespaceSchemaLocation="http://sumo.dlr.de/xsd/routes_file.xsd">
    <vType id="veh_passenger" vClass="passenger"/>
	
	<vType id="ambulance" vClass="emergency" guiShape="emergency" speedFactor="2"/>
	<vType id="police" vClass="emergency" guiShape="police" speedFactor="2"/>
	<vType id="firebrigade" vClass="emergency" guiShape="firebrigade" speedFactor="2"/>
	
	<route id="aleje" edges="-372635877 126106953 277117090 277117079 277117085#0 277117085#1 25117112#0 277117087 277117086 692468163#0 299681481 277117089 277117078#0 431445484 37830025#0 114324803#0 114324803#3 686500128#0 25117109#0 693874505 686500127#0 686500127#2"/>
	
	<vehicle id="amb0" type="ambulance" depart="0.00" departLane="best" route="aleje"/>
	<vehicle id="pol0" type="police" depart="0.00" departLane="best" route="aleje"/>
	<vehicle id="fir0" type="firebrigade" depart="0.00" departLane="best" route="aleje"/>
	
	<trip id="spec00" type="veh_passenger" depart="0.00" departLane="best" from="277117067" to="686500127#2"/>
	<trip id="spec01" type="veh_passenger" depart="0.00" departLane="best" from="277117067" to="686500127#2"/>
	<trip id="spec02" type="veh_passenger" depart="0.00" departLane="best" from="277117067" to="686500127#2"/>
	<trip id="spec03" type="veh_passenger" depart="0.00" departLane="best" from="277117067" to="686500127#2"/>
	<trip id="spec04" type="veh_passenger" depart="0.00" departLane="best" from="277117067" to="686500127#2"/>
	<trip id="spec05" type="veh_passenger" depart="0.00" departLane="best" from="277117067" to="686500127#2"/>
	<trip id="spec06" type="veh_passenger" depart="0.00" departLane="best" from="277117067" to="686500127#2"/>
	<trip id="spec07" type="veh_passenger" depart="0.00" departLane="best" from="277117067" to="686500127#2"/>
	<trip id="spec08" type="veh_passenger" depart="0.00" departLane="best" from="277117067" to="686500127#2"/>
	<trip id="spec09" type="veh_passenger" depart="0.00" departLane="best" from="277117067" to="686500127#2"/>
	<trip id="spec10" type="veh_passenger" depart="0.00" departLane="best" from="277117067" to="686500127#2"/>
	<trip id="spec11" type="veh_passenger" depart="0.00" departLane="best" from="277117067" to="686500127#2"/>
	<trip id="spec12" type="veh_passenger" depart="0.00" departLane="best" from="277117067" to="686500127#2"/>
	<trip id="spec13" type="veh_passenger" depart="0.00" departLane="best" from="277117067" to="686500127#2"/>
	<trip id="spec14" type="veh_passenger" depart="0.00" departLane="best" from="277117067" to="686500127#2"/>
	<trip id="spec15" type="veh_passenger" depart="0.00" departLane="best" from="277117067" to="686500127#2"/>
	<trip id="spec16" type="veh_passenger" depart="0.00" departLane="best" from="277117067" to="686500127#2"/>
	<trip id="spec17" type="veh_passenger" depart="0.00" departLane="best" from="277117067" to="686500127#2"/>
	<trip id="spec18" type="veh_passenger" depart="0.00" departLane="best" from="277117067" to="686500127#2"/>
	<trip id="spec19" type="veh_passenger" depart="0.00" departLane="best" from="277117067" to="686500127#2"/>
	<trip id="spec20" type="veh_passenger" depart="0.00" departLane="best" from="277117067" to="686500127#2"/>
	<trip id="spec21" type="veh_passenger" depart="0.00" departLane="best" from="277117067" to="686500127#2"/>
	<trip id="spec22" type="veh_passenger" depart="0.00" departLane="best" from="277117067" to="686500127#2"/>
	<trip id="spec23" type="veh_passenger" depart="0.00" departLane="best" from="277117067" to="686500127#2"/>
	<trip id="spec24" type="veh_passenger" depart="0.00" departLane="best" from="277117067" to="686500127#2"/>
	<trip id="spec25" type="veh_passenger" depart="0.00" departLane="best" from="277117067" to="686500127#2"/>
	<trip id="spec26" type="veh_passenger" depart="0.00" departLane="best" from="277117067" to="686500127#2"/>
	<trip id="spec27" type="veh_passenger" depart="0.00" departLane="best" from="277117067" to="686500127#2"/>
	<trip id="spec28" type="veh_passenger" depart="0.00" departLane="best" from="277117067" to="686500127#2"/>
	<trip id="spec29" type="veh_passenger" depart="0.00" departLane="best" from="277117067" to="686500127#2"/>
	
    <trip id="veh0" type="veh_passenger" depart="0.00" departLane="best" from="25148696" to="-189917361#1"/>
    <trip id="veh1" type="veh_passenger" depart="1.49" departLane="best" departSpeed="max" from="-652194674#2" to="-808761592#1"/>
    <trip id="veh2" type="veh_passenger" depart="2.99" departLane="best" departSpeed="max" from="28768943" to="277117067"/>
    <trip id="veh3" type="veh_passenger" depart="4.48" departLane="best" from="550447709" to="-25449835#0"/>
    <trip id="veh4" type="veh_passenger" depart="5.98" departLane="best" from="216692173#1" to="-204347060#4"/>
    <trip id="veh5" type="veh_passenger" depart="7.47" departLane="best" departSpeed="max" from="-372636138" to="24217450#0"/>
    <trip id="veh6" type="veh_passenger" depart="8.97" departLane="best" departSpeed="max" from="-154353735" to="-564607400#0"/>
    <trip id="veh7" type="veh_passenger" depart="10.46" departLane="best" from="25526332#0" to="24822053#7"/>
    <trip id="veh8" type="veh_passenger" depart="11.96" departLane="best" departSpeed="max" from="-372636138" to="25148696"/>
    <trip id="veh9" type="veh_passenger" depart="13.45" departLane="best" from="401042503" to="-120726760#1"/>
    <trip id="veh10" type="veh_passenger" depart="14.95" departLane="best" departSpeed="max" from="128212107" to="-401042504"/>
    <trip id="veh11" type="veh_passenger" depart="16.44" departLane="best" departSpeed="max" from="79262253" to="189917357#0"/>
    <trip id="veh12" type="veh_passenger" depart="17.94" departLane="best" from="-24244307#2" to="-25752189"/>
    <trip id="veh13" type="veh_passenger" depart="19.43" departLane="best" departSpeed="max" from="45447180#0" to="25525864#1"/>
    <trip id="veh14" type="veh_passenger" depart="20.93" departLane="best" from="37834150#0" to="294809238"/>
    <trip id="veh15" type="veh_passenger" depart="22.42" departLane="best" from="23825058#3" to="803767518#0"/>
    <trip id="veh16" type="veh_passenger" depart="23.92" departLane="best" from="187685309#0" to="25069632-AddedOnRampEdge"/>
    <trip id="veh18" type="veh_passenger" depart="26.91" departLane="best" departSpeed="max" from="47944091#0" to="25130416#0"/>
    <trip id="veh19" type="veh_passenger" depart="28.40" departLane="best" from="277117061" to="-23257812#1"/>
    <trip id="veh20" type="veh_passenger" depart="29.90" departLane="best" departSpeed="max" from="-396964394" to="149948147#1"/>
    <trip id="veh21" type="veh_passenger" depart="31.39" departLane="best" from="-23825058#8" to="-834278406#3"/>
    <trip id="veh22" type="veh_passenger" depart="32.89" departLane="best" departSpeed="max" from="-24731529#1" to="141069819"/>
    <trip id="veh23" type="veh_passenger" depart="34.38" departLane="best" from="25130788#2" to="206880049#0"/>
    <trip id="veh25" type="veh_passenger" depart="37.37" departLane="best" from="-564607400#0" to="686500127#2"/>
    <trip id="veh26" type="veh_passenger" depart="38.87" departLane="best" from="25525864#1" to="25529095#1"/>
    <trip id="veh27" type="veh_passenger" depart="40.36" departLane="best" departSpeed="max" from="-28348212#2" to="294584406"/>
    <trip id="veh28" type="veh_passenger" depart="41.85" departLane="best" departSpeed="max" from="-26344197#1" to="216692175#0"/>
    <trip id="veh29" type="veh_passenger" depart="43.35" departLane="best" departSpeed="max" from="839741290#0" to="26099409"/>
    <trip id="veh30" type="veh_passenger" depart="44.84" departLane="best" from="24193284#0" to="277117086"/>
    <trip id="veh31" type="veh_passenger" depart="46.34" departLane="best" from="447662460#1" to="360788210"/>
    <trip id="veh32" type="veh_passenger" depart="47.83" departLane="best" departSpeed="max" from="-396964394" to="-21025095#5"/>
    <trip id="veh33" type="veh_passenger" depart="49.33" departLane="best" from="101322356" to="127998293#0"/>
    <trip id="veh34" type="veh_passenger" depart="50.82" departLane="best" departSpeed="max" from="-360787340#1" to="692469260#4"/>
    <trip id="veh36" type="veh_passenger" depart="53.81" departLane="best" from="25530992#0" to="216758819"/>
    <trip id="veh37" type="veh_passenger" depart="55.31" departLane="best" from="600704985#1" to="23257186"/>
    <trip id="veh38" type="veh_passenger" depart="56.80" departLane="best" departSpeed="max" from="24216183" to="120126064#0"/>
    <trip id="veh39" type="veh_passenger" depart="58.30" departLane="best" departSpeed="max" from="24787447" to="564607399"/>
    <trip id="veh40" type="veh_passenger" depart="59.79" departLane="best" from="199688061" to="-79963252#1"/>
    <trip id="veh41" type="veh_passenger" depart="61.29" departLane="best" departSpeed="max" from="93144348#0" to="242707358"/>
    <trip id="veh42" type="veh_passenger" depart="62.78" departLane="best" departSpeed="max" from="-25117528#2" to="25757056#2"/>
    <trip id="veh43" type="veh_passenger" depart="64.28" departLane="best" from="376694602#5" to="216943997#0"/>
    <trip id="veh44" type="veh_passenger" depart="65.77" departLane="best" from="-216993331#0" to="216692363#0"/>
    <trip id="veh46" type="veh_passenger" depart="68.76" departLane="best" from="827590119#0" to="46619385#1"/>
    <trip id="veh47" type="veh_passenger" depart="70.26" departLane="best" departSpeed="max" from="-128052896#1" to="29349590#0"/>
    <trip id="veh48" type="veh_passenger" depart="71.75" departLane="best" from="26096233" to="24789911#0"/>
    <trip id="veh49" type="veh_passenger" depart="73.25" departLane="best" from="-564607399" to="26099409"/>
    <trip id="veh50" type="veh_passenger" depart="74.74" departLane="best" departSpeed="max" from="-25123158#1" to="217162190"/>
    <trip id="veh51" type="veh_passenger" depart="76.24" departLane="best" from="216893225#1" to="74516907#0"/>
    <trip id="veh52" type="veh_passenger" depart="77.73" departLane="best" from="533275337" to="120126064#0"/>
    <trip id="veh53" type="veh_passenger" depart="79.23" departLane="best" from="221329671#0" to="-45450579#2"/>
    <trip id="veh54" type="veh_passenger" depart="80.72" departLane="best" from="597451781#0" to="498651800"/>
    <trip id="veh55" type="veh_passenger" depart="82.21" departLane="best" departSpeed="max" from="-803767518#1" to="26099408#1"/>
    <trip id="veh56" type="veh_passenger" depart="83.71" departLane="best" from="25069631" to="-37833188#1"/>
    <trip id="veh58" type="veh_passenger" depart="86.70" departLane="best" from="33291040#0" to="24787443"/>
    <trip id="veh59" type="veh_passenger" depart="88.19" departLane="best" departSpeed="max" from="-101162129" to="179246547#6"/>
    <trip id="veh60" type="veh_passenger" depart="89.69" departLane="best" from="-147579538#1" to="683295866#0"/>
    <trip id="veh61" type="veh_passenger" depart="91.18" departLane="best" from="535723986" to="427461733#2"/>
    <trip id="veh62" type="veh_passenger" depart="92.68" departLane="best" from="-831715748#1" to="-23825058#8"/>
    <trip id="veh63" type="veh_passenger" depart="94.17" departLane="best" from="535723975" to="702194293#0"/>
    <trip id="veh64" type="veh_passenger" depart="95.67" departLane="best" from="-24165660#4" to="24157370#0"/>
    <trip id="veh65" type="veh_passenger" depart="97.16" departLane="best" from="-23257792#1" to="333129875"/>
    <trip id="veh66" type="veh_passenger" depart="98.66" departLane="best" from="30601061#0" to="-298560691#1"/>
    <trip id="veh67" type="veh_passenger" depart="100.15" departLane="best" from="217162184" to="25069630"/>
    <trip id="veh68" type="veh_passenger" depart="101.65" departLane="best" from="-545626663" to="511560325"/>
    <trip id="veh69" type="veh_passenger" depart="103.14" departLane="best" from="216692174#0" to="-733011779#4"/>
    <trip id="veh70" type="veh_passenger" depart="104.64" departLane="best" from="240494343#0" to="294809238"/>
    <trip id="veh71" type="veh_passenger" depart="106.13" departLane="best" from="-30971319#3" to="162961112"/>
    <trip id="veh73" type="veh_passenger" depart="109.12" departLane="best" from="216789259#0" to="24525409#0"/>
    <trip id="veh74" type="veh_passenger" depart="110.62" departLane="best" departSpeed="max" from="-25148891" to="-826254044#0"/>
    <trip id="veh75" type="veh_passenger" depart="112.11" departLane="best" departSpeed="max" from="128212107" to="25148298#0"/>
    <trip id="veh76" type="veh_passenger" depart="113.61" departLane="best" from="-401042504" to="-79963252#1"/>
    <trip id="veh78" type="veh_passenger" depart="116.60" departLane="best" departSpeed="max" from="-396964394" to="587760874"/>
    <trip id="veh79" type="veh_passenger" depart="118.09" departLane="best" departSpeed="max" from="46655520#0" to="-247686254#0"/>
    <trip id="veh81" type="veh_passenger" depart="121.08" departLane="best" departSpeed="max" from="-360788210" to="-30326770#1"/>
    <trip id="veh82" type="veh_passenger" depart="122.57" departLane="best" from="693874505" to="25117528#1"/>
    <trip id="veh83" type="veh_passenger" depart="124.07" departLane="best" from="216987196" to="365151260#0"/>
    <trip id="veh84" type="veh_passenger" depart="125.56" departLane="best" from="37844680#0" to="-47944091#2"/>
    <trip id="veh85" type="veh_passenger" depart="127.06" departLane="best" from="-24365260" to="217162187"/>
    <trip id="veh86" type="veh_passenger" depart="128.55" departLane="best" from="216692175#0" to="233046646#1"/>
    <trip id="veh87" type="veh_passenger" depart="130.05" departLane="best" from="28348213#0" to="276667280#2"/>
    <trip id="veh88" type="veh_passenger" depart="131.54" departLane="best" from="829894545#2" to="-25757036#3"/>
    <trip id="veh89" type="veh_passenger" depart="133.04" departLane="best" departSpeed="max" from="203410268#0" to="195550161"/>
    <trip id="veh90" type="veh_passenger" depart="134.53" departLane="best" departSpeed="max" from="47944091#0" to="104019240#0"/>
    <trip id="veh91" type="veh_passenger" depart="136.03" departLane="best" from="-295147071" to="221329652#0"/>
    <trip id="veh92" type="veh_passenger" depart="137.52" departLane="best" from="216692173#1" to="141069819"/>
    <trip id="veh93" type="veh_passenger" depart="139.02" departLane="best" from="-448469115#7" to="656908128"/>
    <trip id="veh94" type="veh_passenger" depart="140.51" departLane="best" from="216789264" to="46619385#6"/>
    <trip id="veh95" type="veh_passenger" depart="142.01" departLane="best" from="24165660#0" to="-233046646#0"/>
    <trip id="veh96" type="veh_passenger" depart="143.50" departLane="best" from="94092847#4" to="430292702"/>
    <trip id="veh97" type="veh_passenger" depart="145.00" departLane="best" from="82749515" to="669428180"/>
    <trip id="veh98" type="veh_passenger" depart="146.49" departLane="best" from="217162194" to="-75394044#0"/>
    <trip id="veh99" type="veh_passenger" depart="147.99" departLane="best" from="200654867" to="-23825060#2"/>
    <trip id="veh100" type="veh_passenger" depart="149.48" departLane="best" from="187685309#0" to="82800563#0"/>
    <trip id="veh101" type="veh_passenger" depart="150.98" departLane="best" from="-547256594#3" to="365151260#0"/>
    <trip id="veh102" type="veh_passenger" depart="152.47" departLane="best" from="216893651#0" to="216945216#0"/>
    <trip id="veh103" type="veh_passenger" depart="153.97" departLane="best" departSpeed="max" from="79262253" to="83675714#0"/>
    <trip id="veh104" type="veh_passenger" depart="155.46" departLane="best" departSpeed="max" from="24193276#0" to="29326987#2"/>
    <trip id="veh105" type="veh_passenger" depart="156.96" departLane="best" departSpeed="max" from="-26099409" to="154353740#0"/>
    <trip id="veh106" type="veh_passenger" depart="158.45" departLane="best" from="82749515" to="25130420#0"/>
    <trip id="veh107" type="veh_passenger" depart="159.94" departLane="best" from="24157204#0" to="30601136#0"/>
    <trip id="veh108" type="veh_passenger" depart="161.44" departLane="best" from="-21025095#5" to="25130786#0"/>
    <trip id="veh109" type="veh_passenger" depart="162.93" departLane="best" departSpeed="max" from="224248809" to="448469115#0"/>
    <trip id="veh110" type="veh_passenger" depart="164.43" departLane="best" from="-26160990" to="763274683#0"/>
    <trip id="veh111" type="veh_passenger" depart="165.92" departLane="best" from="-23825058#8" to="-46655521#2"/>
    <trip id="veh113" type="veh_passenger" depart="168.91" departLane="best" departSpeed="max" from="-40779666#1" to="-28593667#11"/>
    <trip id="veh114" type="veh_passenger" depart="170.41" departLane="best" from="547861715#0" to="101322356"/>
    <trip id="veh115" type="veh_passenger" depart="171.90" departLane="best" from="24821782#0" to="25709018#0"/>
    <trip id="veh116" type="veh_passenger" depart="173.40" departLane="best" departSpeed="max" from="216688107" to="25130786#0"/>
    <trip id="veh118" type="veh_passenger" depart="176.39" departLane="best" departSpeed="max" from="-310331215" to="292383023#2"/>
    <trip id="veh120" type="veh_passenger" depart="179.38" departLane="best" from="25757056#0" to="155221402#0"/>
    <trip id="veh121" type="veh_passenger" depart="180.87" departLane="best" from="101322361#0" to="30971319#4"/>
    <trip id="veh122" type="veh_passenger" depart="182.37" departLane="best" from="-233620426#5" to="22727594#0"/>
    <trip id="veh123" type="veh_passenger" depart="183.86" departLane="best" departSpeed="max" from="93144348#0" to="83675714#0"/>
    <trip id="veh124" type="veh_passenger" depart="185.36" departLane="best" departSpeed="max" from="-234875263" to="-75394044#0"/>
    <trip id="veh125" type="veh_passenger" depart="186.85" departLane="best" from="-547256594#3" to="686500127#2"/>
    <trip id="veh126" type="veh_passenger" depart="188.35" departLane="best" from="538978472" to="535723996"/>
    <trip id="veh127" type="veh_passenger" depart="189.84" departLane="best" departSpeed="max" from="44422894#0" to="28289238#0"/>
    <trip id="veh128" type="veh_passenger" depart="191.34" departLane="best" from="25069633" to="82800604#6"/>
    <trip id="veh129" type="veh_passenger" depart="192.83" departLane="best" from="25529095#1" to="-131079852#3"/>
    <trip id="veh130" type="veh_passenger" depart="194.33" departLane="best" departSpeed="max" from="41192466#0" to="155221402#0"/>
    <trip id="veh131" type="veh_passenger" depart="195.82" departLane="best" from="256367295#0" to="686500128#0"/>
    <trip id="veh133" type="veh_passenger" depart="198.81" departLane="best" from="-24821354" to="25069633"/>
    <trip id="veh134" type="veh_passenger" depart="200.30" departLane="best" from="-627370853#2" to="25526035#0"/>
    <trip id="veh135" type="veh_passenger" depart="201.80" departLane="best" from="277117089" to="-65372863"/>
    <trip id="veh136" type="veh_passenger" depart="203.29" departLane="best" from="25130785#0" to="122694168"/>
    <trip id="veh137" type="veh_passenger" depart="204.79" departLane="best" from="21896370#0" to="587760874"/>
    <trip id="veh138" type="veh_passenger" depart="206.28" departLane="best" from="453923730" to="-25598861"/>
    <trip id="veh139" type="veh_passenger" depart="207.78" departLane="best" from="216692175#0" to="139665961#0"/>
    <trip id="veh140" type="veh_passenger" depart="209.27" departLane="best" departSpeed="max" from="-104019240#3" to="35766276#0"/>
    <trip id="veh141" type="veh_passenger" depart="210.77" departLane="best" from="25131943" to="120126064#0"/>
    <trip id="veh142" type="veh_passenger" depart="212.26" departLane="best" from="292383023#2" to="25069632"/>
    <trip id="veh144" type="veh_passenger" depart="215.25" departLane="best" from="-234876442#1" to="545626196#0"/>
    <trip id="veh145" type="veh_passenger" depart="216.75" departLane="best" from="564278098#0" to="24822858#0"/>
    <trip id="veh146" type="veh_passenger" depart="218.24" departLane="best" departSpeed="max" from="44422894#0" to="25130785#2"/>
    <trip id="veh147" type="veh_passenger" depart="219.74" departLane="best" from="-25805689#2" to="-29350043#2"/>
    <trip id="veh148" type="veh_passenger" depart="221.23" departLane="best" from="-832568459#3" to="564607400#1"/>
    <trip id="veh149" type="veh_passenger" depart="222.73" departLane="best" from="377114761#0" to="46619385#0"/>
    <trip id="veh150" type="veh_passenger" depart="224.22" departLane="best" departSpeed="max" from="558612810#0" to="-713092110#1"/>
    <trip id="veh152" type="veh_passenger" depart="227.21" departLane="best" from="333129875" to="545626663"/>
    <trip id="veh153" type="veh_passenger" depart="228.71" departLane="best" from="205108010#0" to="25757036#1"/>
    <trip id="veh154" type="veh_passenger" depart="230.20" departLane="best" departSpeed="max" from="-26099409" to="683788320"/>
    <trip id="veh155" type="veh_passenger" depart="231.70" departLane="best" departSpeed="max" from="47944091#0" to="818876721"/>
    <trip id="veh156" type="veh_passenger" depart="233.19" departLane="best" from="401046327#0" to="545626100"/>
    <trip id="veh157" type="veh_passenger" depart="234.69" departLane="best" departSpeed="max" from="-154350017" to="299681481"/>
    <trip id="veh158" type="veh_passenger" depart="236.18" departLane="best" departSpeed="max" from="120726760#0" to="683788320"/>
    <trip id="veh159" type="veh_passenger" depart="237.68" departLane="best" from="37830025#0" to="47384265"/>
    <trip id="veh160" type="veh_passenger" depart="239.17" departLane="best" from="401046327#0" to="126106953"/>
    <trip id="veh161" type="veh_passenger" depart="240.66" departLane="best" from="365151261#0" to="-26099410"/>
    <trip id="veh162" type="veh_passenger" depart="242.16" departLane="best" departSpeed="max" from="530025270" to="46135810#11"/>
    <trip id="veh163" type="veh_passenger" depart="243.65" departLane="best" from="-37697990#0" to="401458850#0"/>
    <trip id="veh164" type="veh_passenger" depart="245.15" departLane="best" from="216940971#0" to="162931489#0"/>
    <trip id="veh165" type="veh_passenger" depart="246.64" departLane="best" from="377114759#4" to="-829271057#1"/>
    <trip id="veh166" type="veh_passenger" depart="248.14" departLane="best" departSpeed="max" from="-154350017" to="-47944103#2"/>
    <trip id="veh167" type="veh_passenger" depart="249.63" departLane="best" departSpeed="max" from="119028307" to="47384265"/>
    <trip id="veh168" type="veh_passenger" depart="251.13" departLane="best" departSpeed="max" from="826255056#0" to="141069819"/>
    <trip id="veh169" type="veh_passenger" depart="252.62" departLane="best" from="25149946#2" to="216789262#0"/>
    <trip id="veh170" type="veh_passenger" depart="254.12" departLane="best" from="829269676" to="24788596#2"/>
    <trip id="veh171" type="veh_passenger" depart="255.61" departLane="best" from="72605496#2" to="-28281153"/>
    <trip id="veh172" type="veh_passenger" depart="257.11" departLane="best" from="82754532#1" to="-45450579#2"/>
    <trip id="veh173" type="veh_passenger" depart="258.60" departLane="best" from="818876721" to="122926279#0"/>
    <trip id="veh174" type="veh_passenger" depart="260.10" departLane="best" departSpeed="max" from="-25117528#2" to="217162190"/>
    <trip id="veh176" type="veh_passenger" depart="263.09" departLane="best" from="25069178#0" to="242917513"/>
    <trip id="veh177" type="veh_passenger" depart="264.58" departLane="best" from="19803399" to="25123158#1"/>
    <trip id="veh178" type="veh_passenger" depart="266.08" departLane="best" departSpeed="max" from="-46655519#2" to="28593667#0"/>
    <trip id="veh179" type="veh_passenger" depart="267.57" departLane="best" departSpeed="max" from="-101162129" to="656908130"/>
    <trip id="veh180" type="veh_passenger" depart="269.07" departLane="best" from="23825060#3" to="29326991"/>
    <trip id="veh181" type="veh_passenger" depart="270.56" departLane="best" from="29299882#0" to="274217592#0"/>
    <trip id="veh182" type="veh_passenger" depart="272.06" departLane="best" from="168660721" to="-24559263"/>
    <trip id="veh183" type="veh_passenger" depart="273.55" departLane="best" from="25709018#0" to="187685304"/>
    <trip id="veh184" type="veh_passenger" depart="275.05" departLane="best" from="101162131#0" to="44422893#0"/>
    <trip id="veh185" type="veh_passenger" depart="276.54" departLane="best" from="277117090" to="155221402#1"/>
    <trip id="veh186" type="veh_passenger" depart="278.04" departLane="best" from="-832588203#1" to="216893222#0"/>
    <trip id="veh187" type="veh_passenger" depart="279.53" departLane="best" departSpeed="max" from="203410268#0" to="154353735"/>
    <trip id="veh188" type="veh_passenger" depart="281.02" departLane="best" departSpeed="max" from="-25506794#1" to="216943995"/>
    <trip id="veh189" type="veh_passenger" depart="282.52" departLane="best" from="733011779#0" to="277117067"/>
    <trip id="veh190" type="veh_passenger" depart="284.01" departLane="best" from="560780770#0" to="25599314#0"/>
    <trip id="veh191" type="veh_passenger" depart="285.51" departLane="best" departSpeed="max" from="-825964223" to="25069178#0"/>
    <trip id="veh192" type="veh_passenger" depart="287.00" departLane="best" departSpeed="max" from="-101162129" to="147463163#9"/>
    <trip id="veh193" type="veh_passenger" depart="288.50" departLane="best" from="216696189" to="25130420#0"/>
    <trip id="veh194" type="veh_passenger" depart="289.99" departLane="best" from="25530766#2" to="23264330#0"/>
    <trip id="veh195" type="veh_passenger" depart="291.49" departLane="best" from="216789263#0" to="-75394044#0"/>
    <trip id="veh196" type="veh_passenger" depart="292.98" departLane="best" from="216988891#0" to="572140621#1"/>
    <trip id="veh197" type="veh_passenger" depart="294.48" departLane="best" from="377114761#0" to="-44422894#1"/>
    <trip id="veh198" type="veh_passenger" depart="295.97" departLane="best" departSpeed="max" from="-24157373#1" to="24365428#0"/>
    <trip id="veh199" type="veh_passenger" depart="297.47" departLane="best" departSpeed="max" from="25130423#0" to="189917357#0"/>
    <trip id="veh200" type="veh_passenger" depart="298.96" departLane="best" from="41192468" to="30971319#4"/>
    <trip id="veh201" type="veh_passenger" depart="300.46" departLane="best" from="25757064#0" to="-826254044#0"/>
    <trip id="veh202" type="veh_passenger" depart="301.95" departLane="best" from="-30601136#3" to="-184308569"/>
    <trip id="veh203" type="veh_passenger" depart="303.45" departLane="best" from="-431445478#2" to="237025647#3"/>
    <trip id="veh204" type="veh_passenger" depart="304.94" departLane="best" from="45450579#0" to="-24788594#1"/>
    <trip id="veh206" type="veh_passenger" depart="307.93" departLane="best" from="-304629930#0" to="277424367#0"/>
    <trip id="veh207" type="veh_passenger" depart="309.43" departLane="best" from="219432045#0" to="-94092847#8"/>
    <trip id="veh208" type="veh_passenger" depart="310.92" departLane="best" from="25530992#3" to="-120726760#0"/>
    <trip id="veh209" type="veh_passenger" depart="312.42" departLane="best" from="295356762#0" to="357275356#0"/>
    <trip id="veh210" type="veh_passenger" depart="313.91" departLane="best" from="-24821352#1" to="216948274"/>
    <trip id="veh212" type="veh_passenger" depart="316.90" departLane="best" departSpeed="max" from="23257812#0" to="-233046646#0"/>
    <trip id="veh213" type="veh_passenger" depart="318.40" departLane="best" from="-44580496#3" to="44422895#0"/>
    <trip id="veh214" type="veh_passenger" depart="319.89" departLane="best" from="216894223#0" to="37828460"/>
    <trip id="veh215" type="veh_passenger" depart="321.38" departLane="best" from="25757036#1" to="828427973"/>
    <trip id="veh216" type="veh_passenger" depart="322.88" departLane="best" from="24822051#0" to="730474445"/>
    <trip id="veh217" type="veh_passenger" depart="324.37" departLane="best" from="549146500#0" to="255451898#0"/>
    <trip id="veh218" type="veh_passenger" depart="325.87" departLane="best" from="277117090" to="24217006#0"/>
    <trip id="veh219" type="veh_passenger" depart="327.36" departLane="best" from="431445487" to="25068888#0"/>
    <trip id="veh221" type="veh_passenger" depart="330.35" departLane="best" from="217162184" to="117386959#0"/>
    <trip id="veh222" type="veh_passenger" depart="331.85" departLane="best" departSpeed="max" from="-437537973" to="26099005"/>
    <trip id="veh223" type="veh_passenger" depart="333.34" departLane="best" from="30601061#0" to="24611315"/>
    <trip id="veh225" type="veh_passenger" depart="336.33" departLane="best" from="-23778348#3" to="147463163#9"/>
    <trip id="veh227" type="veh_passenger" depart="339.32" departLane="best" from="24076215" to="-30971319#3"/>