<?xml version="1.0" encoding="UTF-8"?>

<!-- generated on nie, 13 gru 2020, 15:40:11 by Eclipse SUMO netedit Version 1.8.0
<configuration xmlns:xsi="http://www.w3.org/2001/XMLSchema-instance" xsi:noNamespaceSchemaLocation="http://sumo.dlr.de/xsd/netconvertConfiguration.xsd">

    <input>
        <sumo-net-file value="/home/adams/Projekty/Moses/Simulation/sumo/osm.net.xml"/>
    </input>

    <output>
        <output-file value="/home/adams/Projekty/Moses/Simulation/sumo/osm.net.xml"/>
        <output.street-names value="true"/>
    </output>

    <processing>
        <geometry.min-radius.fix.railways value="false"/>
        <geometry.max-grade.fix value="false"/>
        <offset.disable-normalization value="true"/>
        <lefthand value="false"/>
    </processing>

    <junctions>
        <no-turnarounds value="true"/>
        <junctions.corner-detail value="5"/>
        <junctions.limit-turn-speed value="5.5"/>
        <rectangular-lane-cut value="false"/>
    </junctions>

    <pedestrian>
        <walkingareas value="false"/>
    </pedestrian>

    <netedit>
        <route-files value="/home/adams/Projekty/Moses/Simulation/sumo/temp.rou.xml"/>
    </netedit>

    <report>
        <aggregate-warnings value="5"/>
    </report>

</configuration>
-->

<routes xmlns:xsi="http://www.w3.org/2001/XMLSchema-instance" xsi:noNamespaceSchemaLocation="http://sumo.dlr.de/xsd/routes_file.xsd">
    <route edges="19803688 25045066 216757319 221329659 221329657#0 216757315 199537368 216757322#0 216789266 187685304 216696189 216696187#0 216696187#3 216696187#8 219432045#0 -30815114#5 -657270894" color="yellow" id="basic"/>
</routes>
